[TITLE]
North Marin Water District Zone I

[JUNCTIONS]
;ID                 Elev            Demand          Pattern
 10                 147             0.00                                ;
 15                 32              620.00          3                   ;
 20                 129             0.00                                ;
 35                 12.5            1856            4                   ;
 40                 131.9           0                                   ;
 50                 116.5           0                                   ;
 60                 0               0                                   ;
 61                 0               0                                   ;
 101                42              189.95          1                   ;
 103                43              133.2           1                   ;
 105                28.5            135.37          1                   ;
 107                22              54.64           1                       ;
 109                20.3            231.4           1                   ;
 111                10              141.94          1                   ;
 113                2               20.01           1                   ;
 115                14              52.1            1                   ;
 117                13.6            117.71          1                   ;
 119                2               176.13          1                   ;
 120                0               0                                   ;
 121                -2              41.63                               ;
 123                11              1859            2                   ;
 125                11              45.6            1                   ;
 127                56              17.66           1                   ;
 129                51              0                                   ;
 131                6               42.75           1                   ;
 139                31              5.89            1                   ;
 141                4               9.85            1                   ;
 143                -4.5            6.2             1                   ;
 145                1               27.63           1                   ;
 147                18.5            8.55            1                   ;
 149                16              27.07           1                   ;
 151                33.5            144.48          1                   ;
 153                66.2            44.17           1                   ;
 157                13.1            51.79           1                   ;
 159                6               41.32           1                   ;
 161                4               15.8            1                   ;
 163                5               9.42            1                   ;
 164                5               0                                   ;
 166                -2              2.6             1                       ;
 167                -5              14.56           1                   ;
 169                -5              0                                   ;
 171                -4              39.34           1                   ;
 173                -4              0                                   ;
 177                8               58.17           1                   ;
 179                8               0                                   ;
 181                8               0                                   ;
 183                11              0                                   ;
 184                16              0                                   ;
 185                16              25.65           1                   ;
 187                12.5            0                                   ;
 189                4               107.92          1                   ;
 191                25              81.9            1                   ;
 193                18              71.31           1                   ;
 195                15.5            0                                   ;
 197                23              17.04           1                   ;
 199                -2              119.32          1                   ;
 201                0.1             44.61           1                   ;
 203                2               4643            5                   ;
 204                21              0                                   ;
 205                21              65.36           1                   ;
 206                1               0                                   ;
 207                9               69.39           1                   ;
 208                16              0                                   ;
 209                -2              0.87            1                   ;
 211                7               8.67            1                   ;
 213                7               13.94           1                   ;
 215                7               92.19           1                   ;
 217                6               24.22           1                   ;
 219                4               4.32            1                   ;
 225                8               22.8            1                   ;
 229                10.5            64.18           1                   ;
 231                5               16.48           1                   ;
 237                14              15.61           1                   ;
 239                13              44.61           1                   ;
 241                13              0                                   ;
 243                14              4.34            1                   ;
 247                18              70.38           1                   ;
 249                18              0                                   ;
 251                30              24.16           1                   ;
 253                36              54.52           1                   ;
 255                27              40.39           1                   ;
 257                17              0                                   ;
 259                25              0                                   ;
 261                0               0                                   ;
 263                0               0                                   ;
 265                0               0                                   ;
 267                21              0                                   ;
 269                0               0                                   ;
 271                6               0                                   ;
 273                8               0                                   ;
 275                10              0                                   ;


[RESERVOIRS]
;ID                 Head            Pattern
 4                  220.0                               ;
 5                  167.0                               ;

[TANKS]
;ID                 Elevation       InitLevel       MinLevel        MaxLevel        Diameter        MinVol          VolCurve
 1                  131.9           13.1            0.1             32.1            85              0.1                                 ;
 2                  116.5           23.5            6.5             40.3            50              0.1                                 ;
 3                  129.0           29.0            4.0             35.5            164             0.1                                 ;

[PIPES]
;ID                 Node1               Node2               Length          Diameter        Roughness       MinorLoss       Status
 20                 3                   20                  99                  24              199             0               Open    ;
 40                 1                   40                  99                  24              199             0               Open    ;
 50                 2                   50                  99                  24              199             0               Open    ;
 60                 4                   60                  1231                24              140             0               Open    ;
 101                10                  101                 14200               18              110             0               Open    ;
 103                101                 103                 1350                16              130             0               Open    ;
 105                101                 105                 2540                12              130             0               Open    ;
 107                105                 107                 1470                12              130             0               Open    ;
 109                103                 109                 3940                16              130             0               Open    ;
 111                109                 111                 2000                12              130             0               Open    ;
 112                115                 111                 1160                12              130             0               Open    ;
 113                111                 113                 1680                12              130             0               Open    ;
 114                115                 113                 2000                8               130             0               Open    ;
 115                107                 115                 1950                8               130             0               Open    ;
 116                113                 193                 1660                12              130             0               Open    ;
 117                263                 105                 2725                12              130             0               Open    ;
 119                115                 117                 2180                12              130             0               Open    ;
 120                119                 120                 730                 12              130             0               Open    ;
 121                120                 117                 1870                12              130             0               Open    ;
 122                121                 120                 2050                8               130             0               Open    ;
 123                121                 119                 2000                30              141             0               Open    ;
 125                123                 121                 1500                30              141             0               Open    ;
 129                121                 125                 930                 24              130             0               Open    ;
 131                125                 127                 3240                24              130             0               Open    ;
 133                20                  127                 785                 20              130             0               Open    ;
 135                127                 129                 900                 24              130             0               Open    ;
 137                129                 131                 6480                16              130             0               Open    ;
 145                129                 139                 2750                8               130             0               Open    ;
 147                139                 141                 2050                8               130             0               Open    ;
 149                143                 141                 1400                8               130             0               Open    ;
 151                15                  143                 1650                8               130             0               Open    ;
 153                145                 141                 3510                12              130             0               Open    ;
 155                147                 145                 2200                12              130             0               Open    ;
 159                147                 149                 880                 12              130             0               Open    ;
 161                149                 151                 1020                8               130             0               Open    ;
 163                151                 153                 1170                12              130             0               Open    ;
 169                125                 153                 4560                8               130             0               Open    ;
 171                119                 151                 3460                12              130             0               Open    ;
 173                119                 157                 2080                30              141             0               Open    ;
 175                157                 159                 2910                30              141             0               Open    ;
 177                159                 161                 2000                30              141             0               Open    ;
 179                161                 163                 430                 30              141             0               Open    ;
 180                163                 164                 150                 14              130             0               Open    ;
 181                164                 166                 490                 14              130             0               Open    ;
 183                265                 169                 590                 30              141             0               Open    ;
 185                167                 169                 60                  8               130             0               Open    ;
 186                187                 204                 99.9                8               130             0               Open    ;
 187                169                 171                 1270                30              141             0               Open    ;
 189                171                 173                 50                  30              141             0               Open    ;
 191                271                 171                 760                 24              130             0               Open    ;
 193                35                  181                 30                  24              130             0               Open    ;
 195                181                 177                 30                  12              130             0               Open    ;
 197                177                 179                 30                  12              130             0               Open    ;
 199                179                 183                 210                 12              130             0               Open    ;
 201                40                  179                 1190                12              130             0               Open    ;
 202                185                 184                 99.9                8               130             0               Open    ;
 203                183                 185                 510                 8               130             0               Open    ;
 204                184                 205                 4530                12              130             0               Open    ;
 205                204                 185                 1325                12              130             0               Open    ;
 207                189                 183                 1350                12              130             0               Open    ;
 209                189                 187                 500                 8               130             0               Open    ;
 211                169                 269                 646                 12              130             0               Open    ;
 213                191                 187                 2560                12              130             0               Open    ;
 215                267                 189                 1230                12              130             0               Open    ;
 217                191                 193                 520                 12              130             0               Open    ;
 219                193                 195                 360                 12              130             0               Open    ;
 221                161                 195                 2300                8               130             0               Open    ;
 223                197                 191                 1150                12              130             0               Open    ;
 225                111                 197                 2790                12              130             0               Open    ;
 229                173                 199                 4000                24              141             0               Open    ;
 231                199                 201                 630                 24              141             0               Open    ;
 233                201                 203                 120                 24              130             0               Open    ;
 235                199                 273                 725                 12              130             0               Open    ;
 237                205                 207                 1200                12              130             0               Open    ;
 238                207                 206                 450                 12              130             0               Open    ;
 239                275                 207                 1430                12              130             0               Open    ;
 240                206                 208                 510                 12              130             0               Open    ;
 241                208                 209                 885                 12              130             0               Open    ;
 243                209                 211                 1210                16              130             0               Open    ;
 245                211                 213                 990                 16              130             0               Open    ;
 247                213                 215                 4285                16              130             0               Open    ;
 249                215                 217                 1660                16              130             0               Open    ;
 251                217                 219                 2050                14              130             0               Open    ;
 257                217                 225                 1560                12              130             0               Open    ;
 261                213                 229                 2200                8               130             0               Open    ;
 263                229                 231                 1960                12              130             0               Open    ;
 269                211                 237                 2080                12              130             0               Open    ;
 271                237                 229                 790                 8               130             0               Open    ;
 273                237                 239                 510                 12              130             0               Open    ;
 275                239                 241                 35                  12              130             0               Open    ;
 277                241                 243                 2200                12              130             0               Open    ;
 281                241                 247                 445                 12              130             0               Open    ;
 283                239                 249                 430                 12              130             0               Open    ;
 285                247                 249                 10                  12              130             0               Open    ;
 287                247                 255                 1390                10              130             0               Open    ;
 289                50                  255                 925                 10              130             0               Open    ;
 291                255                 253                 1100                10              130             0               Open    ;
 293                255                 251                 1100                8               130             0               Open    ;
 295                249                 251                 1450                12              130             0               Open    ;
 297                120                 257                 645                 8               130             0               Open    ;
 299                257                 259                 350                 8               130             0               Open    ;
 301                259                 263                 1400                8               130             0               Open    ;
 303                257                 261                 1400                8               130             0               Open    ;
 305                117                 261                 645                 12              130             0               Open    ;
 307                261                 263                 350                 12              130             0               Open    ;
 309                265                 267                 1580                8               130             0               Open    ;
 311                193                 267                 1170                12              130             0               Open    ;
 313                269                 189                 646                 12              130             0               Open    ;
 315                181                 271                 260                 24              130             0               Open    ;
 317                273                 275                 2230                8               130             0               Open    ;
 319                273                 205                 645                 12              130             0               Open    ;
 321                163                 265                 1200                30              141             0               Open    ;
 323                201                 275                 300                 12              130             0               Open    ;
 325                269                 271                 1290                8               130             0               Open    ;
 329                61                  123                 45500               30              140             0               Open    ;



[PUMPS]
;ID                 Node1               Node2               Parameters
 10                 5                   10                  HEAD 10 SPEED 1 ;
 335                60                  61                  HEAD 335    SPEED 1 ;


[VALVES]
;ID                 Node1               Node2               Diameter        Type    Setting         MinorLoss

[TAGS]

[DEMANDS]
;Junction           Demand          Pattern             Category

[STATUS]
;ID                 Status/Setting
 10                 Open
 335                 Open

[PATTERNS]
;ID                 Multipliers
;
 1  1.34    1.94    1.46    1.44    0.76    0.92    0.85    1.07    0.96
 1  1.10    1.08    1.19    1.16    1.08    0.96    0.83    0.79    0.74
 1  0.64    0.64    0.85    0.96    1.24    1.67

 2  0       0       0       0       0       0.656   0       0       0
 2  1.0037  0.988   0.978   0.978   0.98    0.980   0.977   0.981   0.976
 2  0.986   0.984   0.984   0.975   0.989   1.00

 3  1       1       1       1       1       0.580   0.580   0       0
 3  0       0       0.580   0.580   0.580   0.580   0.580   0       0
 3  0       0       0       0       0.580   0.580

 4  0.882   0.919   0.926   0.926   0.964   0.980   0.957   0.992   0.977
 4  0.983   1.00    0.970   0.980   0.934   0.896   0.872   0.869   0.872
 4  0.870   0.887   0.876   0.876   0.900   0.898


 5  0.956   0.975   0.971   0.986   0.975   0.986   0.984   0.993   1.00
 5  1.00    0.989   0.993   0.975   0.973   0.958   0.956   0.958   0.960
 5  0.956   0.951   0.940   0.947   0.962   0.964


[CURVES]
;ID                 X-Value         Y-Value
;PUMP: PUMP:
 10             0               104
 10             3000            92
 10             6000            63
;PUMP: PUMP:
 335            0               200
 335            8000            138
 335            14000           86


[CONTROLS]

[ENERGY]
 Global Efficiency      75
 Global Price           0
 Demand Charge          0

[EMITTERS]
;Junction           Coefficient

[QUALITY]
;Node               InitQual

[SOURCES]
;Node               Type            Quality         Pattern

[REACTIONS]
;Type       Pipe/Tank           Coefficient


[REACTIONS]
 Order Bulk             1
 Order Tank             1
 Order Wall             1
 Global Bulk            0
 Global Wall            0
 Limiting Potential     0
 Roughness Correlation  0

[MIXING]
;Tank               Model

[TIMES]
 Duration               48:00
 Hydraulic Timestep     1:00
 Quality Timestep       2:00
 Pattern Timestep       1:00
 Pattern Start          0:00
 Report Timestep        2:00
 Report Start           0:00
 Start ClockTime        0:00
 Statistic              None

[REPORT]

[OPTIONS]
 Units                  GPM
 Headloss               H-W
 Specific Gravity       0.998
 Viscosity              1


[COORDINATES]
;Node X-Coord Y-Coord
10 9.00 27.85
15 38.68 23.76
20 29.44 26.91
35 25.46 10.52
40 27.02 9.81
50 33.01 3.01
60 23.90 29.94
61 23.71 29.03
101 13.81 22.94
103 12.96 21.31
105 16.97 21.28
107 18.45 20.46
109 17.64 18.92
111 20.21 17.53
113 22.04 16.61
115 20.98 19.18
117 21.69 21.28
119 23.70 22.76
120 22.08 23.10
121 23.54 25.50
123 23.37 27.31
125 24.59 25.64
127 29.29 26.40
129 30.32 26.39
131 37.89 29.55
139 33.28 24.54
141 35.68 23.08
143 37.47 21.97
145 33.02 19.29
147 30.24 20.38
149 29.62 20.74
151 28.29 21.39
153 28.13 22.63
157 24.85 20.16
159 23.12 17.50
161 25.10 15.28
163 25.39 14.98
164 25.98 15.14
166 26.48 15.13
167 25.88 12.98
169 25.68 12.74
171 26.65 11.80
173 26.87 11.59
179 25.71 10.40
181 25.72 10.74
183 25.45 10.18
184 25.15 9.52
185 25.01 9.67
187 23.64 11.04
189 24.15 11.37
191 22.10 14.07
193 22.88 14.35
195 23.18 14.72
197 20.97 15.18
199 29.42 8.44
201 30.89 8.57
203 31.14 8.89
204 23.80 10.90
205 29.20 6.46
206 31.66 6.64
207 31.00 6.61
208 32.54 6.81
209 33.76 6.59
211 34.20 5.54
213 35.26 6.16
215 39.95 8.73
217 42.11 8.67
219 44.86 9.32
225 43.53 7.38
229 36.16 3.49
231 38.38 2.54
237 35.37 3.08
239 35.76 2.31
241 35.87 2.11
243 37.04 .00
247 35.02 2.05
249 35.02 1.81
251 34.15 1.10
253 32.17 1.88
255 33.51 2.45
257 21.17 23.32
259 20.80 23.40
261 20.79 21.45
263 20.32 21.57
265 25.39 13.60
267 23.38 12.95
269 25.03 12.14
271 25.97 11.00
273 29.16 7.38
275 31.07 8.29
4 24.15 31.06
5 8.00 27.53
1 27.46 9.84
2 32.99 3.45
3 29.41 27.27


[VERTICES]
;Link               X-Coord             Y-Coord


[LABELS]
;X-Coord           Y-Coord          Label & Anchor Node


[END]
